Master_M1/OutputDSS.dss
Clear

New Circuit.M1_Reduced bus1=SourceBus basekv=67 pu=1 R1=0.0518 X1=0.1555 R0=0.0518 X0=0.155
New Line.temp_temp2 Phases=3 bus1=temp.1.2.3 bus2=temp2.1.2.3 Units=km Length=0.001 Rmatrix=[1                  0                  0| 0                  1                  0| 0                  0                  1|] Xmatrix=[1                  0                  0| 0                  1                  0| 0                  0                  1|] Cmatrix=[0                  0                  0| 0                  0                  0| 0                  0                  0|]
New Line.temp2_aggld Phases=3 bus1=temp2.1.2.3 bus2=aggld.1.2.3 Units=km Length=0.001 Rmatrix=[1                  0                  0| 0                  1                  0| 0                  0                  1|] Xmatrix=[1                  0                  0| 0                  1                  0| 0                  0                  1|] Cmatrix=[0                  0                  0| 0                  0                  0| 0                  0                  0|]
New Line.temp2_0x0089f0c8 Phases=3 bus1=temp2.1.2.3 bus2=0x0089f0c8.1.2.3 Units=km Length=0.001 Rmatrix=[1                  0                  0| 0                  1                  0| 0                  0                  1|] Xmatrix=[1                  0                  0| 0                  1                  0| 0                  0                  1|] Cmatrix=[0                  0                  0| 0                  0                  0| 0                  0                  0|]
New Line.0x0089f0c8_0x008ca1a0 Phases=3 bus1=0x0089f0c8.1.2.3 bus2=0x008ca1a0.1.2.3 Units=km Length=0.160902 Rmatrix=[0.14217            0.05687            0.05687| 0.05687            0.14217    0.0568700000001| 0.05687    0.0568700000001            0.14217|] Xmatrix=[ 0.185916666666    0.0743666666665    0.0743666666665| 0.0743666666665     0.185916666667    0.0743666666668| 0.0743666666665    0.0743666666668     0.185916666667|] Cmatrix=[0                  0                  0| 0                  0                  0| 0                  0                  0|]
New Line.0x0089f0c8_0x008e61f0 Phases=3 bus1=0x0089f0c8.1.2.3 bus2=0x008e61f0.1.2.3 Units=km Length=0.547847 Rmatrix=[0.14217            0.05687            0.05687| 0.05687            0.14217    0.0568700000001| 0.05687    0.0568700000001            0.14217|] Xmatrix=[ 0.185916666667    0.0743666666668    0.0743666666668| 0.0743666666668     0.185916666667    0.0743666666667| 0.0743666666668    0.0743666666667     0.185916666667|] Cmatrix=[0                  0                  0| 0                  0                  0| 0                  0                  0|]
New Line.0x008f0780_0x008d8138 Phases=1 bus1=0x008f0780.1 bus2=0x008d8138.1 Units=km Length=0.0813589 Rmatrix=1.12861 Xmatrix=0.33793 Cmatrix=0
New Line.0x008d8138_0x008d89d0 Phases=1 bus1=0x008d8138.1 bus2=0x008d89d0.1 Units=km Length=0.114515 Rmatrix=1.12861 Xmatrix=0.33793 Cmatrix=0
New Line.0x008ddcf8_0x008ddb40 Phases=1 bus1=0x008ddcf8.1 bus2=0x008ddb40.1 Units=km Length=0.0384401 Rmatrix=1.12861 Xmatrix=0.33793 Cmatrix=0
New Line.0x008ddb40_0x008e8ce8 Phases=1 bus1=0x008ddb40.1 bus2=0x008e8ce8.1 Units=km Length=0.008381 Rmatrix=1.12861 Xmatrix=0.33793 Cmatrix=0
New Line.0x008cd1c0_0x008dcbc8 Phases=1 bus1=0x008cd1c0.1 bus2=0x008dcbc8.1 Units=km Length=0.020706 Rmatrix=1.12861 Xmatrix=0.33793 Cmatrix=0
New Line.0x008dcbc8_0x008dd0f0 Phases=1 bus1=0x008dcbc8.1 bus2=0x008dd0f0.1 Units=km Length=0.0269372 Rmatrix=1.12861 Xmatrix=0.33793 Cmatrix=0
New Line.0x008e1248_0x008deac0 Phases=1 bus1=0x008e1248.1 bus2=0x008deac0.1 Units=km Length=0.0410587 Rmatrix=1.12861 Xmatrix=0.33793 Cmatrix=0
New Line.0x008deac0_0x008ddcf8 Phases=1 bus1=0x008deac0.1 bus2=0x008ddcf8.1 Units=km Length=0.0180763 Rmatrix=1.12861 Xmatrix=0.33793 Cmatrix=0
New Line.0x008f3280_0x008f37a8 Phases=1 bus1=0x008f3280.1 bus2=0x008f37a8.1 Units=km Length=0.0342286 Rmatrix=1.12861 Xmatrix=0.33793 Cmatrix=0
New Line.0x008f37a8_0x008e5278 Phases=1 bus1=0x008f37a8.1 bus2=0x008e5278.1 Units=km Length=0.170388 Rmatrix=1.12861 Xmatrix=0.33793 Cmatrix=0
New Line.0x008db8d8_0x008d9678 Phases=1 bus1=0x008db8d8.1 bus2=0x008d9678.1 Units=km Length=0.199725 Rmatrix=1.12861 Xmatrix=0.33793 Cmatrix=0
New Line.0x008d9678_0x008ce818 Phases=1 bus1=0x008d9678.1 bus2=0x008ce818.1 Units=km Length=0.124964 Rmatrix=1.12861 Xmatrix=0.33793 Cmatrix=0
New Line.0x008e5278_0x008e74d8 Phases=1 bus1=0x008e5278.1 bus2=0x008e74d8.1 Units=km Length=0.132224 Rmatrix=1.12861 Xmatrix=0.33793 Cmatrix=0
New Line.0x008cd6e8_0x008f0ca8 Phases=1 bus1=0x008cd6e8.1 bus2=0x008f0ca8.1 Units=km Length=0.0447192 Rmatrix=1.12861 Xmatrix=0.33793 Cmatrix=0
New Line.0x008e74d8_0x008f2308 Phases=1 bus1=0x008e74d8.1 bus2=0x008f2308.1 Units=km Length=0.0200417 Rmatrix=1.12861 Xmatrix=0.33793 Cmatrix=0
New Line.0x008dd0f0_0x008c3a80 Phases=1 bus1=0x008dd0f0.1 bus2=0x008c3a80.1 Units=km Length=0.0118864 Rmatrix=1.12861 Xmatrix=0.33793 Cmatrix=0
New Line.0x008e0640_0x008e9e18 Phases=1 bus1=0x008e0640.1 bus2=0x008e9e18.1 Units=km Length=0.0795265 Rmatrix=1.12861 Xmatrix=0.33793 Cmatrix=0
New Line.0x008e9e18_0x008dbc48 Phases=1 bus1=0x008e9e18.1 bus2=0x008dbc48.1 Units=km Length=0.0262016 Rmatrix=1.12861 Xmatrix=0.33793 Cmatrix=0
New Line.0x008dbc48_0x008dbfb8 Phases=1 bus1=0x008dbc48.1 bus2=0x008dbfb8.1 Units=km Length=0.0233355 Rmatrix=1.12861 Xmatrix=0.33793 Cmatrix=0
New Line.0x008ce818_0x008dd7d0 Phases=1 bus1=0x008ce818.1 bus2=0x008dd7d0.1 Units=km Length=0.13613 Rmatrix=1.12861 Xmatrix=0.33793 Cmatrix=0
New Line.0x008dd7d0_0x008d2618 Phases=1 bus1=0x008dd7d0.1 bus2=0x008d2618.1 Units=km Length=0.133986 Rmatrix=1.12861 Xmatrix=0.33793 Cmatrix=0
New Line.0x008d2618_0x008cc5b8 Phases=1 bus1=0x008d2618.1 bus2=0x008cc5b8.1 Units=km Length=0.106304 Rmatrix=1.12861 Xmatrix=0.33793 Cmatrix=0
New Line.0x008cf5d8_0x008dc4e8 Phases=1 bus1=0x008cf5d8.1 bus2=0x008dc4e8.1 Units=km Length=0.0828553 Rmatrix=1.12861 Xmatrix=0.33793 Cmatrix=0
New Line.0x008dc4e8_0x008d2460 Phases=1 bus1=0x008dc4e8.1 bus2=0x008d2460.1 Units=km Length=0.0401161 Rmatrix=1.12861 Xmatrix=0.33793 Cmatrix=0
New Line.0x008d5ed8_0x0089ccb0 Phases=1 bus1=0x008d5ed8.1 bus2=0x0089ccb0.1 Units=km Length=0.017098 Rmatrix=1.12861 Xmatrix=0.33793 Cmatrix=0
New Line.0x008d2460_0x008d5ed8 Phases=1 bus1=0x008d2460.1 bus2=0x008d5ed8.1 Units=km Length=0.041271 Rmatrix=1.12861 Xmatrix=0.33793 Cmatrix=0
New Line.0x008e44b8_0x008db8d8 Phases=1 bus1=0x008e44b8.1 bus2=0x008db8d8.1 Units=km Length=0.157019 Rmatrix=1.12861 Xmatrix=0.33793 Cmatrix=0
New Line.0x008ce2f0_0x008cd6e8 Phases=1 bus1=0x008ce2f0.1 bus2=0x008cd6e8.1 Units=km Length=0.0616753 Rmatrix=1.12861 Xmatrix=0.33793 Cmatrix=0
New Line.0x008d89d0_0x008d1858 Phases=1 bus1=0x008d89d0.1 bus2=0x008d1858.1 Units=km Length=0.0614284 Rmatrix=1.12861 Xmatrix=0.33793 Cmatrix=0
New Line.0x008d1858_0x008d9f10 Phases=1 bus1=0x008d1858.1 bus2=0x008d9f10.1 Units=km Length=0.0385562 Rmatrix=1.12861 Xmatrix=0.33793 Cmatrix=0
New Line.0x008d22a8_0x008e44b8 Phases=1 bus1=0x008d22a8.1 bus2=0x008e44b8.1 Units=km Length=0.348184 Rmatrix=1.12861 Xmatrix=0.33793 Cmatrix=0
New Line.0x008d0708_0x008d5640 Phases=1 bus1=0x008d0708.1 bus2=0x008d5640.1 Units=km Length=0.149676 Rmatrix=1.12861 Xmatrix=0.33793 Cmatrix=0
New Line.0x008cf420_0x008e1248 Phases=1 bus1=0x008cf420.1 bus2=0x008e1248.1 Units=km Length=0.169986 Rmatrix=1.12861 Xmatrix=0.33793 Cmatrix=0
New Line.0x008dbfb8_0x008db720 Phases=1 bus1=0x008dbfb8.1 bus2=0x008db720.1 Units=km Length=0.152465 Rmatrix=1.12861 Xmatrix=0.33793 Cmatrix=0
New Line.0x008db720_0x008db1f8 Phases=1 bus1=0x008db720.1 bus2=0x008db1f8.1 Units=km Length=0.0343891 Rmatrix=1.12861 Xmatrix=0.33793 Cmatrix=0
New Line.0x008996e0_0x008d9830 Phases=1 bus1=0x008996e0.1 bus2=0x008d9830.1 Units=km Length=0.0253621 Rmatrix=1.12861 Xmatrix=0.33793 Cmatrix=0
New Line.0x008d9830_0x008d9ba0 Phases=1 bus1=0x008d9830.1 bus2=0x008d9ba0.1 Units=km Length=0.0188147 Rmatrix=1.12861 Xmatrix=0.33793 Cmatrix=0
New Line.0x008d9ba0_0x008db568 Phases=1 bus1=0x008d9ba0.1 bus2=0x008db568.1 Units=km Length=0.0577868 Rmatrix=1.12861 Xmatrix=0.33793 Cmatrix=0
New Line.0x008db040_0x008c2120 Phases=1 bus1=0x008db040.1 bus2=0x008c2120.1 Units=km Length=0.0475343 Rmatrix=1.12861 Xmatrix=0.33793 Cmatrix=0
New Line.0x008dec78_0x008e8298 Phases=1 bus1=0x008dec78.1 bus2=0x008e8298.1 Units=km Length=0.00855 Rmatrix=1.12861 Xmatrix=0.33793 Cmatrix=0
New Line.0x008db568_0x008db040 Phases=1 bus1=0x008db568.1 bus2=0x008db040.1 Units=km Length=0.047294 Rmatrix=1.12861 Xmatrix=0.33793 Cmatrix=0
New Line.0x008f11d8_0x008e1928 Phases=1 bus1=0x008f11d8.1 bus2=0x008e1928.1 Units=km Length=0.0373674 Rmatrix=1.12861 Xmatrix=0.33793 Cmatrix=0
New Line.0x008e1928_0x008c6fc8 Phases=1 bus1=0x008e1928.1 bus2=0x008c6fc8.1 Units=km Length=0.0774519 Rmatrix=1.12861 Xmatrix=0.33793 Cmatrix=0
New Line.0x008e3358_0x008c8b48 Phases=1 bus1=0x008e3358.1 bus2=0x008c8b48.1 Units=km Length=0.25676 Rmatrix=1.12861 Xmatrix=0.33793 Cmatrix=0
New Line.0x008c8b48_0x008ce2f0 Phases=1 bus1=0x008c8b48.1 bus2=0x008ce2f0.1 Units=km Length=0.0502633 Rmatrix=1.12861 Xmatrix=0.33793 Cmatrix=0
New Line.0x008e6560_0x008e6a88 Phases=1 bus1=0x008e6560.1 bus2=0x008e6a88.1 Units=km Length=0.025696 Rmatrix=1.12861 Xmatrix=0.33793 Cmatrix=0
New Line.0x008e6a88_0x008e7168 Phases=1 bus1=0x008e6a88.1 bus2=0x008e7168.1 Units=km Length=0.030386 Rmatrix=1.12861 Xmatrix=0.33793 Cmatrix=0
New Line.0x008e7168_0x008ea4f8 Phases=1 bus1=0x008e7168.1 bus2=0x008ea4f8.1 Units=km Length=0.0249818 Rmatrix=1.12861 Xmatrix=0.33793 Cmatrix=0
New Line.0x008e8ce8_0x008e6560 Phases=1 bus1=0x008e8ce8.1 bus2=0x008e6560.1 Units=km Length=0.027675 Rmatrix=1.12861 Xmatrix=0.33793 Cmatrix=0
New Line.0x008ea4f8_0x008c3030 Phases=1 bus1=0x008ea4f8.1 bus2=0x008c3030.1 Units=km Length=0.00949212 Rmatrix=1.12861 Xmatrix=0.33793 Cmatrix=0
New Line.0x008de228_0x008c4bb0 Phases=1 bus1=0x008de228.1 bus2=0x008c4bb0.1 Units=km Length=0.0236431 Rmatrix=1.12861 Xmatrix=0.33793 Cmatrix=0
New Line.0x008c4bb0_0x008c5290 Phases=1 bus1=0x008c4bb0.1 bus2=0x008c5290.1 Units=km Length=0.0248094 Rmatrix=1.12861 Xmatrix=0.33793 Cmatrix=0
New Line.0x008c5290_0x008f18b8 Phases=1 bus1=0x008c5290.1 bus2=0x008f18b8.1 Units=km Length=0.018039 Rmatrix=1.12861 Xmatrix=0.33793 Cmatrix=0
New Line.0x008efb78_0x008cf5d8 Phases=1 bus1=0x008efb78.1 bus2=0x008cf5d8.1 Units=km Length=0.331713 Rmatrix=1.12861 Xmatrix=0.33793 Cmatrix=0
New Line.0x008e7690_0x008ddeb0 Phases=1 bus1=0x008e7690.1 bus2=0x008ddeb0.1 Units=km Length=0.0815733 Rmatrix=1.12861 Xmatrix=0.33793 Cmatrix=0
New Line.0x008c9070_0x008de908 Phases=1 bus1=0x008c9070.1 bus2=0x008de908.1 Units=km Length=0.0126587 Rmatrix=1.12861 Xmatrix=0.33793 Cmatrix=0
New Line.0x008de908_0x008d6770 Phases=1 bus1=0x008de908.1 bus2=0x008d6770.1 Units=km Length=0.076461 Rmatrix=1.12861 Xmatrix=0.33793 Cmatrix=0
New Line.0x008ca6c8_0x008c9070 Phases=1 bus1=0x008ca6c8.1 bus2=0x008c9070.1 Units=km Length=0.0646374 Rmatrix=1.12861 Xmatrix=0.33793 Cmatrix=0
New Line.0x008e2598_0x008996e0 Phases=1 bus1=0x008e2598.1 bus2=0x008996e0.1 Units=km Length=0.326854 Rmatrix=1.12861 Xmatrix=0.33793 Cmatrix=0
New Line.0x008dff60_0x008e4d50 Phases=1 bus1=0x008dff60.1 bus2=0x008e4d50.1 Units=km Length=0.0188319 Rmatrix=1.12861 Xmatrix=0.33793 Cmatrix=0
New Line.0x008e4d50_0x008c6050 Phases=1 bus1=0x008e4d50.1 bus2=0x008c6050.1 Units=km Length=0.0111848 Rmatrix=1.12861 Xmatrix=0.33793 Cmatrix=0
New Line.0x008db1f8_0x008de228 Phases=1 bus1=0x008db1f8.1 bus2=0x008de228.1 Units=km Length=0.0341393 Rmatrix=1.12861 Xmatrix=0.33793 Cmatrix=0
New Line.0x008dc858_0x008d0708 Phases=1 bus1=0x008dc858.1 bus2=0x008d0708.1 Units=km Length=0.032906 Rmatrix=1.12861 Xmatrix=0.33793 Cmatrix=0
New Line.0x008cada8_0x008dc858 Phases=1 bus1=0x008cada8.1 bus2=0x008dc858.1 Units=km Length=0.053847 Rmatrix=1.12861 Xmatrix=0.33793 Cmatrix=0
New Line.0x008b87e8_0x008cada8 Phases=1 bus1=0x008b87e8.1 bus2=0x008cada8.1 Units=km Length=0.0178194 Rmatrix=1.12861 Xmatrix=0.33793 Cmatrix=0
New Line.0x008c6fc8_0x008e1ae0 Phases=1 bus1=0x008c6fc8.1 bus2=0x008e1ae0.1 Units=km Length=0.0881753 Rmatrix=1.12861 Xmatrix=0.33793 Cmatrix=0
New Line.0x008e1ae0_0x008c8eb8 Phases=1 bus1=0x008e1ae0.1 bus2=0x008c8eb8.1 Units=km Length=0.00909202 Rmatrix=1.12861 Xmatrix=0.33793 Cmatrix=0
New Line.0x008c6050_0x008c68e8 Phases=1 bus1=0x008c6050.1 bus2=0x008c68e8.1 Units=km Length=0.0639454 Rmatrix=1.12861 Xmatrix=0.33793 Cmatrix=0
New Line.0x008c68e8_0x008f3280 Phases=1 bus1=0x008c68e8.1 bus2=0x008f3280.1 Units=km Length=0.0534139 Rmatrix=1.12861 Xmatrix=0.33793 Cmatrix=0
New Line.0x008e09b0_0x008e93c8 Phases=1 bus1=0x008e09b0.1 bus2=0x008e93c8.1 Units=km Length=0.0281872 Rmatrix=1.12861 Xmatrix=0.33793 Cmatrix=0
New Line.0x008e93c8_0x008ea868 Phases=1 bus1=0x008e93c8.1 bus2=0x008ea868.1 Units=km Length=0.0694028 Rmatrix=1.12861 Xmatrix=0.33793 Cmatrix=0
New Line.0x008ea868_0x008eabd8 Phases=1 bus1=0x008ea868.1 bus2=0x008eabd8.1 Units=km Length=0.0290562 Rmatrix=1.12861 Xmatrix=0.33793 Cmatrix=0
New Line.0x008e4f08_0x008e8b30 Phases=1 bus1=0x008e4f08.1 bus2=0x008e8b30.1 Units=km Length=0.068691 Rmatrix=1.12861 Xmatrix=0.33793 Cmatrix=0
New Line.0x008e8b30_0x008ca6c8 Phases=1 bus1=0x008e8b30.1 bus2=0x008ca6c8.1 Units=km Length=0.104116 Rmatrix=1.12861 Xmatrix=0.33793 Cmatrix=0
New Line.0x008eabd8_0x008eb100 Phases=1 bus1=0x008eabd8.1 bus2=0x008eb100.1 Units=km Length=0.0290532 Rmatrix=1.12861 Xmatrix=0.33793 Cmatrix=0
New Line.0x008eb100_0x008d0c30 Phases=1 bus1=0x008eb100.1 bus2=0x008d0c30.1 Units=km Length=0.06912 Rmatrix=1.12861 Xmatrix=0.33793 Cmatrix=0
New Line.0x008d9f10_0x008dec78 Phases=1 bus1=0x008d9f10.1 bus2=0x008dec78.1 Units=km Length=0.008549 Rmatrix=1.12861 Xmatrix=0.33793 Cmatrix=0
New Line.0x008c8eb8_0x008dff60 Phases=1 bus1=0x008c8eb8.1 bus2=0x008dff60.1 Units=km Length=0.346773 Rmatrix=1.12861 Xmatrix=0.33793 Cmatrix=0
New Line.0x008e1770_0x008f1548 Phases=1 bus1=0x008e1770.2 bus2=0x008f1548.2 Units=km Length=0.0899758 Rmatrix=1.12861 Xmatrix=0.33793 Cmatrix=0
New Line.0x008f1548_0x008e38b0 Phases=1 bus1=0x008f1548.2 bus2=0x008e38b0.2 Units=km Length=0.0359485 Rmatrix=1.12861 Xmatrix=0.33793 Cmatrix=0
New Line.0x008d76e8_0x008d1330 Phases=1 bus1=0x008d76e8.2 bus2=0x008d1330.2 Units=km Length=0.0833053 Rmatrix=1.12861 Xmatrix=0.33793 Cmatrix=0
New Line.0x008d1330_0x008dd618 Phases=1 bus1=0x008d1330.2 bus2=0x008dd618.2 Units=km Length=0.129202 Rmatrix=1.12861 Xmatrix=0.33793 Cmatrix=0
New Line.0x008d2b40_0x008d3ac0 Phases=1 bus1=0x008d2b40.2 bus2=0x008d3ac0.2 Units=km Length=0.094369 Rmatrix=1.12861 Xmatrix=0.33793 Cmatrix=0
New Line.0x008d3ac0_0x008f3b18 Phases=1 bus1=0x008d3ac0.2 bus2=0x008f3b18.2 Units=km Length=0.020193 Rmatrix=1.12861 Xmatrix=0.33793 Cmatrix=0
New Line.0x0089d700_0x0089e4c0 Phases=1 bus1=0x0089d700.2 bus2=0x0089e4c0.2 Units=km Length=0.0453055 Rmatrix=1.12861 Xmatrix=0.33793 Cmatrix=0
New Line.0x0089e4c0_0x008c5970 Phases=1 bus1=0x0089e4c0.2 bus2=0x008c5970.2 Units=km Length=0.0923253 Rmatrix=1.12861 Xmatrix=0.33793 Cmatrix=0
New Line.0x008e0d20_0x008dfbf0 Phases=1 bus1=0x008e0d20.2 bus2=0x008dfbf0.2 Units=km Length=0.0681666 Rmatrix=1.12861 Xmatrix=0.33793 Cmatrix=0
New Line.0x008dfbf0_0x008d0398 Phases=1 bus1=0x008dfbf0.2 bus2=0x008d0398.2 Units=km Length=0.0181325 Rmatrix=1.12861 Xmatrix=0.33793 Cmatrix=0
New Line.0x008d0398_0x008c7338 Phases=1 bus1=0x008d0398.2 bus2=0x008c7338.2 Units=km Length=0.0712477 Rmatrix=1.12861 Xmatrix=0.33793 Cmatrix=0
New Line.0x008c7338_0x008f3960 Phases=1 bus1=0x008c7338.2 bus2=0x008f3960.2 Units=km Length=0.0188246 Rmatrix=1.12861 Xmatrix=0.33793 Cmatrix=0
New Line.0x008f3960_0x008ceb88 Phases=1 bus1=0x008f3960.2 bus2=0x008ceb88.2 Units=km Length=0.0424714 Rmatrix=1.12861 Xmatrix=0.33793 Cmatrix=0
New Line.0x008d33e0_0x008d3598 Phases=1 bus1=0x008d33e0.2 bus2=0x008d3598.2 Units=km Length=0.146091 Rmatrix=1.12861 Xmatrix=0.33793 Cmatrix=0
New Line.0x008d3598_0x008dd988 Phases=1 bus1=0x008d3598.2 bus2=0x008dd988.2 Units=km Length=0.0740843 Rmatrix=1.12861 Xmatrix=0.33793 Cmatrix=0
New Line.0x008dd988_0x008de598 Phases=1 bus1=0x008dd988.2 bus2=0x008de598.2 Units=km Length=0.019285 Rmatrix=1.12861 Xmatrix=0.33793 Cmatrix=0
New Line.0x008d9d58_0x008cc090 Phases=1 bus1=0x008d9d58.2 bus2=0x008cc090.2 Units=km Length=0.187833 Rmatrix=1.12861 Xmatrix=0.33793 Cmatrix=0
New Line.0x008cc090_0x008cd530 Phases=1 bus1=0x008cc090.2 bus2=0x008cd530.2 Units=km Length=0.090326 Rmatrix=1.12861 Xmatrix=0.33793 Cmatrix=0
New Line.0x008cd530_0x008cdc10 Phases=1 bus1=0x008cd530.2 bus2=0x008cdc10.2 Units=km Length=0.0305348 Rmatrix=1.12861 Xmatrix=0.33793 Cmatrix=0
New Line.0x008cdc10_0x008c80f8 Phases=1 bus1=0x008cdc10.2 bus2=0x008c80f8.2 Units=km Length=0.0183204 Rmatrix=1.12861 Xmatrix=0.33793 Cmatrix=0
New Line.0x008e07f8_0x008d4510 Phases=1 bus1=0x008e07f8.2 bus2=0x008d4510.2 Units=km Length=0.0603165 Rmatrix=1.12861 Xmatrix=0.33793 Cmatrix=0
New Line.0x008d4510_0x008d33e0 Phases=1 bus1=0x008d4510.2 bus2=0x008d33e0.2 Units=km Length=0.0641646 Rmatrix=1.12861 Xmatrix=0.33793 Cmatrix=0
New Line.0x008e2c78_0x008b8d10 Phases=1 bus1=0x008e2c78.2 bus2=0x008b8d10.2 Units=km Length=0.269816 Rmatrix=1.12861 Xmatrix=0.33793 Cmatrix=0
New Line.0x008b8d10_0x008eb470 Phases=1 bus1=0x008b8d10.2 bus2=0x008eb470.2 Units=km Length=0.0246745 Rmatrix=1.12861 Xmatrix=0.33793 Cmatrix=0
New Line.0x008d5118_0x008c5ce0 Phases=1 bus1=0x008d5118.2 bus2=0x008c5ce0.2 Units=km Length=0.0388935 Rmatrix=1.12861 Xmatrix=0.33793 Cmatrix=0
New Line.0x008d1f38_0x008c4688 Phases=1 bus1=0x008d1f38.2 bus2=0x008c4688.2 Units=km Length=0.128446 Rmatrix=1.12861 Xmatrix=0.33793 Cmatrix=0
New Line.0x008dd618_0x008d1f38 Phases=1 bus1=0x008dd618.2 bus2=0x008d1f38.2 Units=km Length=0.072481 Rmatrix=1.12861 Xmatrix=0.33793 Cmatrix=0
New Line.0x008ce138_0x0089e150 Phases=1 bus1=0x008ce138.2 bus2=0x0089e150.2 Units=km Length=0.0386609 Rmatrix=1.12861 Xmatrix=0.33793 Cmatrix=0
New Line.0x008f2830_0x008de3e0 Phases=1 bus1=0x008f2830.2 bus2=0x008de3e0.2 Units=km Length=0.071385 Rmatrix=1.12861 Xmatrix=0.33793 Cmatrix=0
New Line.0x008de3e0_0x008d76e8 Phases=1 bus1=0x008de3e0.2 bus2=0x008d76e8.2 Units=km Length=0.0377663 Rmatrix=1.12861 Xmatrix=0.33793 Cmatrix=0
New Line.0x008da7a8_0x008ce138 Phases=1 bus1=0x008da7a8.2 bus2=0x008ce138.2 Units=km Length=0.0531621 Rmatrix=1.12861 Xmatrix=0.33793 Cmatrix=0
New Line.0x008ef498_0x008d01e0 Phases=1 bus1=0x008ef498.2 bus2=0x008d01e0.2 Units=km Length=0.535682 Rmatrix=1.12861 Xmatrix=0.33793 Cmatrix=0
New Line.0x008d01e0_0x008da7a8 Phases=1 bus1=0x008d01e0.2 bus2=0x008da7a8.2 Units=km Length=0.0365103 Rmatrix=1.12861 Xmatrix=0.33793 Cmatrix=0
New Line.0x008de598_0x008cd8a0 Phases=1 bus1=0x008de598.2 bus2=0x008cd8a0.2 Units=km Length=0.149102 Rmatrix=1.12861 Xmatrix=0.33793 Cmatrix=0
New Line.0x008ea6b0_0x008c44d0 Phases=1 bus1=0x008ea6b0.2 bus2=0x008c44d0.2 Units=km Length=0.027432 Rmatrix=1.12861 Xmatrix=0.33793 Cmatrix=0
New Line.0x008cd8a0_0x008ea6b0 Phases=1 bus1=0x008cd8a0.2 bus2=0x008ea6b0.2 Units=km Length=0.013626 Rmatrix=1.12861 Xmatrix=0.33793 Cmatrix=0
New Line.0x008c5970_0x008ca358 Phases=1 bus1=0x008c5970.2 bus2=0x008ca358.2 Units=km Length=0.120704 Rmatrix=1.12861 Xmatrix=0.33793 Cmatrix=0
New Line.0x008ca358_0x008ef808 Phases=1 bus1=0x008ca358.2 bus2=0x008ef808.2 Units=km Length=0.0211115 Rmatrix=1.12861 Xmatrix=0.33793 Cmatrix=0
New Line.0x008eb470_0x008d5118 Phases=1 bus1=0x008eb470.2 bus2=0x008d5118.2 Units=km Length=0.0400315 Rmatrix=1.12861 Xmatrix=0.33793 Cmatrix=0
New Line.0x008c2648_0x008c3558 Phases=1 bus1=0x008c2648.2 bus2=0x008c3558.2 Units=km Length=0.00874918 Rmatrix=1.12861 Xmatrix=0.33793 Cmatrix=0
New Line.0x0089bf70_0x008c2648 Phases=1 bus1=0x0089bf70.2 bus2=0x008c2648.2 Units=km Length=0.025727 Rmatrix=1.12861 Xmatrix=0.33793 Cmatrix=0
New Line.0x008c2490_0x0089bf70 Phases=1 bus1=0x008c2490.2 bus2=0x0089bf70.2 Units=km Length=0.0173101 Rmatrix=1.12861 Xmatrix=0.33793 Cmatrix=0
New Line.0x008c2b70_0x008c2490 Phases=1 bus1=0x008c2b70.2 bus2=0x008c2490.2 Units=km Length=0.0320271 Rmatrix=1.12861 Xmatrix=0.33793 Cmatrix=0
New Line.0x0089d020_0x008c2b70 Phases=1 bus1=0x0089d020.2 bus2=0x008c2b70.2 Units=km Length=0.0735574 Rmatrix=1.12861 Xmatrix=0.33793 Cmatrix=0
New Line.0x008cbd20_0x0089d020 Phases=1 bus1=0x008cbd20.2 bus2=0x0089d020.2 Units=km Length=0.0911348 Rmatrix=1.12861 Xmatrix=0.33793 Cmatrix=0
New Line.0x008e38b0_0x008e7320 Phases=1 bus1=0x008e38b0.2 bus2=0x008e7320.2 Units=km Length=0.0129078 Rmatrix=1.12861 Xmatrix=0.33793 Cmatrix=0
New Line.0x008ce9d0_0x0089dde0 Phases=1 bus1=0x008ce9d0.2 bus2=0x0089dde0.2 Units=km Length=0.0629704 Rmatrix=1.12861 Xmatrix=0.33793 Cmatrix=0
New Line.0x0089dde0_0x0089d700 Phases=1 bus1=0x0089dde0.2 bus2=0x0089d700.2 Units=km Length=0.0359514 Rmatrix=1.12861 Xmatrix=0.33793 Cmatrix=0
New Line.0x008e7320_0x008e7848 Phases=1 bus1=0x008e7320.2 bus2=0x008e7848.2 Units=km Length=0.0119263 Rmatrix=1.12861 Xmatrix=0.33793 Cmatrix=0
New Line.0x008e7848_0x008e4300 Phases=1 bus1=0x008e7848.2 bus2=0x008e4300.2 Units=km Length=0.0119329 Rmatrix=1.12861 Xmatrix=0.33793 Cmatrix=0
New Line.0x008d7dc8_0x008eda38 Phases=1 bus1=0x008d7dc8.2 bus2=0x008eda38.2 Units=km Length=0.0410877 Rmatrix=1.12861 Xmatrix=0.33793 Cmatrix=0
New Line.0x008eda38_0x0089fcd0 Phases=1 bus1=0x008eda38.2 bus2=0x0089fcd0.2 Units=km Length=0.00908786 Rmatrix=1.12861 Xmatrix=0.33793 Cmatrix=0
New Line.0x008e4300_0x008e2750 Phases=1 bus1=0x008e4300.2 bus2=0x008e2750.2 Units=km Length=0.0163082 Rmatrix=1.12861 Xmatrix=0.33793 Cmatrix=0
New Line.0x008e2750_0x008e2ac0 Phases=1 bus1=0x008e2750.2 bus2=0x008e2ac0.2 Units=km Length=0.0253631 Rmatrix=1.12861 Xmatrix=0.33793 Cmatrix=0
New Line.0x008e2ac0_0x008d7dc8 Phases=1 bus1=0x008e2ac0.2 bus2=0x008d7dc8.2 Units=km Length=0.0492334 Rmatrix=1.12861 Xmatrix=0.33793 Cmatrix=0
New Line.0x008c63c0_0x008f2830 Phases=1 bus1=0x008c63c0.2 bus2=0x008f2830.2 Units=km Length=0.107512 Rmatrix=1.12861 Xmatrix=0.33793 Cmatrix=0
New Line.0x008cce50_0x008d3e30 Phases=1 bus1=0x008cce50.2 bus2=0x008d3e30.2 Units=km Length=0.036168 Rmatrix=1.12861 Xmatrix=0.33793 Cmatrix=0
New Line.0x008d3e30_0x008d14e8 Phases=1 bus1=0x008d3e30.2 bus2=0x008d14e8.2 Units=km Length=0.0960566 Rmatrix=1.12861 Xmatrix=0.33793 Cmatrix=0
New Line.0x008d0a78_0x008d0de8 Phases=1 bus1=0x008d0a78.2 bus2=0x008d0de8.2 Units=km Length=0.107904 Rmatrix=1.12861 Xmatrix=0.33793 Cmatrix=0
New Line.0x008d0de8_0x008cce50 Phases=1 bus1=0x008d0de8.2 bus2=0x008cce50.2 Units=km Length=0.202228 Rmatrix=1.12861 Xmatrix=0.33793 Cmatrix=0
New Line.0x008d14e8_0x008d0550 Phases=1 bus1=0x008d14e8.2 bus2=0x008d0550.2 Units=km Length=0.0207098 Rmatrix=1.12861 Xmatrix=0.33793 Cmatrix=0
New Line.0x008ee368_0x008d8660 Phases=1 bus1=0x008ee368.2 bus2=0x008d8660.2 Units=km Length=0.0455607 Rmatrix=1.12861 Xmatrix=0.33793 Cmatrix=0
New Line.0x008d8660_0x008d4358 Phases=1 bus1=0x008d8660.2 bus2=0x008d4358.2 Units=km Length=0.0709026 Rmatrix=1.12861 Xmatrix=0.33793 Cmatrix=0
New Line.0x008d4358_0x008d1bc8 Phases=1 bus1=0x008d4358.2 bus2=0x008d1bc8.2 Units=km Length=0.0622668 Rmatrix=1.12861 Xmatrix=0.33793 Cmatrix=0
New Line.0x008d1bc8_0x008d6ae0 Phases=1 bus1=0x008d1bc8.2 bus2=0x008d6ae0.2 Units=km Length=0.0377803 Rmatrix=1.12861 Xmatrix=0.33793 Cmatrix=0
New Line.0x008d6ae0_0x0089f7a8 Phases=1 bus1=0x008d6ae0.2 bus2=0x0089f7a8.2 Units=km Length=0.0163439 Rmatrix=1.12861 Xmatrix=0.33793 Cmatrix=0
New Line.0x008e0b68_0x008ee520 Phases=1 bus1=0x008e0b68.2 bus2=0x008ee520.2 Units=km Length=0.258539 Rmatrix=1.12861 Xmatrix=0.33793 Cmatrix=0
New Line.0x008ee520_0x008d99e8 Phases=1 bus1=0x008ee520.2 bus2=0x008d99e8.2 Units=km Length=0.121188 Rmatrix=1.12861 Xmatrix=0.33793 Cmatrix=0
New Line.0x008d99e8_0x008e07f8 Phases=1 bus1=0x008d99e8.2 bus2=0x008e07f8.2 Units=km Length=0.034192 Rmatrix=1.12861 Xmatrix=0.33793 Cmatrix=0
New Line.0x008f1a70_0x008e0b68 Phases=1 bus1=0x008f1a70.2 bus2=0x008e0b68.2 Units=km Length=0.034861 Rmatrix=1.12861 Xmatrix=0.33793 Cmatrix=0
New Line.0x008c7a18_0x008ce660 Phases=1 bus1=0x008c7a18.2 bus2=0x008ce660.2 Units=km Length=0.0742344 Rmatrix=1.12861 Xmatrix=0.33793 Cmatrix=0
New Line.0x008c8468_0x008c7a18 Phases=1 bus1=0x008c8468.2 bus2=0x008c7a18.2 Units=km Length=0.0447983 Rmatrix=1.12861 Xmatrix=0.33793 Cmatrix=0
New Line.0x008c8990_0x008c8468 Phases=1 bus1=0x008c8990.2 bus2=0x008c8468.2 Units=km Length=0.0449453 Rmatrix=1.12861 Xmatrix=0.33793 Cmatrix=0
New Line.0x008cb488_0x008c8990 Phases=1 bus1=0x008cb488.2 bus2=0x008c8990.2 Units=km Length=0.0652388 Rmatrix=1.12861 Xmatrix=0.33793 Cmatrix=0
New Line.0x008e4828_0x008cb488 Phases=1 bus1=0x008e4828.2 bus2=0x008cb488.2 Units=km Length=0.114147 Rmatrix=1.12861 Xmatrix=0.33793 Cmatrix=0
New Line.0x008ce4a8_0x0089c260 Phases=1 bus1=0x008ce4a8.3 bus2=0x0089c260.3 Units=km Length=0.0361308 Rmatrix=1.12861 Xmatrix=0.33793 Cmatrix=0
New Line.0x0089c260_0x008e49e0 Phases=1 bus1=0x0089c260.3 bus2=0x008e49e0.3 Units=km Length=0.0178333 Rmatrix=1.12861 Xmatrix=0.33793 Cmatrix=0
New Line.0x008e49e0_0x008dcf38 Phases=1 bus1=0x008e49e0.3 bus2=0x008dcf38.3 Units=km Length=0.00501062 Rmatrix=1.12861 Xmatrix=0.33793 Cmatrix=0
New Line.0x008dcf38_0x008cb118 Phases=1 bus1=0x008dcf38.3 bus2=0x008cb118.3 Units=km Length=0.034809 Rmatrix=1.12861 Xmatrix=0.33793 Cmatrix=0
New Line.0x008e1090_0x008eb998 Phases=1 bus1=0x008e1090.3 bus2=0x008eb998.3 Units=km Length=0.154775 Rmatrix=1.12861 Xmatrix=0.33793 Cmatrix=0
New Line.0x008eb998_0x008eb2b8 Phases=1 bus1=0x008eb998.3 bus2=0x008eb2b8.3 Units=km Length=0.017435 Rmatrix=1.12861 Xmatrix=0.33793 Cmatrix=0
New Line.0x008eb2b8_0x008ed358 Phases=1 bus1=0x008eb2b8.3 bus2=0x008ed358.3 Units=km Length=0.0301466 Rmatrix=1.12861 Xmatrix=0.33793 Cmatrix=0
New Line.0x008ed358_0x008e2fe8 Phases=1 bus1=0x008ed358.3 bus2=0x008e2fe8.3 Units=km Length=0.042252 Rmatrix=1.12861 Xmatrix=0.33793 Cmatrix=0
New Line.0x008d6c98_0x008dcd80 Phases=1 bus1=0x008d6c98.3 bus2=0x008dcd80.3 Units=km Length=0.127809 Rmatrix=1.12861 Xmatrix=0.33793 Cmatrix=0
New Line.0x008e2fe8_0x008e3510 Phases=1 bus1=0x008e2fe8.3 bus2=0x008e3510.3 Units=km Length=0.0380024 Rmatrix=1.12861 Xmatrix=0.33793 Cmatrix=0
New Line.0x008e3510_0x008e68d0 Phases=1 bus1=0x008e3510.3 bus2=0x008e68d0.3 Units=km Length=0.0315057 Rmatrix=1.12861 Xmatrix=0.33793 Cmatrix=0
New Line.0x008e68d0_0x0089d390 Phases=1 bus1=0x008e68d0.3 bus2=0x0089d390.3 Units=km Length=0.0123307 Rmatrix=1.12861 Xmatrix=0.33793 Cmatrix=0
New Line.0x008dee30_0x008e8450 Phases=1 bus1=0x008dee30.3 bus2=0x008e8450.3 Units=km Length=0.02064 Rmatrix=1.12861 Xmatrix=0.33793 Cmatrix=0
New Line.0x008e8450_0x008c4d68 Phases=1 bus1=0x008e8450.3 bus2=0x008c4d68.3 Units=km Length=0.024992 Rmatrix=1.12861 Xmatrix=0.33793 Cmatrix=0
New Line.0x008e1400_0x008df1a0 Phases=1 bus1=0x008e1400.3 bus2=0x008df1a0.3 Units=km Length=0.032246 Rmatrix=1.12861 Xmatrix=0.33793 Cmatrix=0
New Line.0x008df1a0_0x008dee30 Phases=1 bus1=0x008df1a0.3 bus2=0x008dee30.3 Units=km Length=0.031131 Rmatrix=1.12861 Xmatrix=0.33793 Cmatrix=0
New Line.0x008c4d68_0x008df6c8 Phases=1 bus1=0x008c4d68.3 bus2=0x008df6c8.3 Units=km Length=0.049023 Rmatrix=1.12861 Xmatrix=0.33793 Cmatrix=0
New Line.0x008e8978_0x0089d8b8 Phases=1 bus1=0x008e8978.3 bus2=0x0089d8b8.3 Units=km Length=0.0301281 Rmatrix=1.12861 Xmatrix=0.33793 Cmatrix=0
New Line.0x008df6c8_0x008f3438 Phases=1 bus1=0x008df6c8.3 bus2=0x008f3438.3 Units=km Length=0.0085002 Rmatrix=1.12861 Xmatrix=0.33793 Cmatrix=0
New Line.0x008d08c0_0x008da438 Phases=1 bus1=0x008d08c0.3 bus2=0x008da438.3 Units=km Length=0.0534844 Rmatrix=1.12861 Xmatrix=0.33793 Cmatrix=0
New Line.0x008da438_0x008da960 Phases=1 bus1=0x008da438.3 bus2=0x008da960.3 Units=km Length=0.0124263 Rmatrix=1.12861 Xmatrix=0.33793 Cmatrix=0
New Line.0x008da960_0x008dacd0 Phases=1 bus1=0x008da960.3 bus2=0x008dacd0.3 Units=km Length=0.0430907 Rmatrix=1.12861 Xmatrix=0.33793 Cmatrix=0
New Line.0x008dacd0_0x008e0488 Phases=1 bus1=0x008dacd0.3 bus2=0x008e0488.3 Units=km Length=0.0452389 Rmatrix=1.12861 Xmatrix=0.33793 Cmatrix=0
New Line.0x008d1a10_0x008d4880 Phases=1 bus1=0x008d1a10.3 bus2=0x008d4880.3 Units=km Length=0.197763 Rmatrix=1.12861 Xmatrix=0.33793 Cmatrix=0
New Line.0x008d4880_0x008d4f60 Phases=1 bus1=0x008d4880.3 bus2=0x008d4f60.3 Units=km Length=0.0795731 Rmatrix=1.12861 Xmatrix=0.33793 Cmatrix=0
New Line.0x008d4f60_0x008d5d20 Phases=1 bus1=0x008d4f60.3 bus2=0x008d5d20.3 Units=km Length=0.183077 Rmatrix=1.12861 Xmatrix=0.33793 Cmatrix=0
New Line.0x008d5d20_0x008c2ee0 Phases=1 bus1=0x008d5d20.3 bus2=0x008c2ee0.3 Units=km Length=0.015219 Rmatrix=1.12861 Xmatrix=0.33793 Cmatrix=0
New Line.0x008eb7e0_0x008dc330 Phases=1 bus1=0x008eb7e0.3 bus2=0x008dc330.3 Units=km Length=0.202261 Rmatrix=1.12861 Xmatrix=0.33793 Cmatrix=0
New Line.0x008dc330_0x008d4bf0 Phases=1 bus1=0x008dc330.3 bus2=0x008d4bf0.3 Units=km Length=0.020483 Rmatrix=1.12861 Xmatrix=0.33793 Cmatrix=0
New Line.0x008d82f0_0x00899528 Phases=1 bus1=0x008d82f0.3 bus2=0x00899528.3 Units=km Length=0.207479 Rmatrix=1.12861 Xmatrix=0.33793 Cmatrix=0
New Line.0x00899528_0x008d6c98 Phases=1 bus1=0x00899528.3 bus2=0x008d6c98.3 Units=km Length=0.134606 Rmatrix=1.12861 Xmatrix=0.33793 Cmatrix=0
New Line.0x008d4bf0_0x008d5488 Phases=1 bus1=0x008d4bf0.3 bus2=0x008d5488.3 Units=km Length=0.135574 Rmatrix=1.12861 Xmatrix=0.33793 Cmatrix=0
New Line.0x008c50d8_0x008c49f8 Phases=1 bus1=0x008c50d8.3 bus2=0x008c49f8.3 Units=km Length=0.0934253 Rmatrix=1.12861 Xmatrix=0.33793 Cmatrix=0
New Line.0x008d5488_0x008d6400 Phases=1 bus1=0x008d5488.3 bus2=0x008d6400.3 Units=km Length=0.133319 Rmatrix=1.12861 Xmatrix=0.33793 Cmatrix=0
New Line.0x008d6400_0x008de750 Phases=1 bus1=0x008d6400.3 bus2=0x008de750.3 Units=km Length=0.079619 Rmatrix=1.12861 Xmatrix=0.33793 Cmatrix=0
New Line.0x008ee890_0x008d08c0 Phases=1 bus1=0x008ee890.3 bus2=0x008d08c0.3 Units=km Length=0.275593 Rmatrix=1.12861 Xmatrix=0.33793 Cmatrix=0
New Line.0x008ea188_0x008ccae0 Phases=1 bus1=0x008ea188.3 bus2=0x008ccae0.3 Units=km Length=0.0232511 Rmatrix=1.12861 Xmatrix=0.33793 Cmatrix=0
New Line.0x008ccae0_0x008e5cc8 Phases=1 bus1=0x008ccae0.3 bus2=0x008e5cc8.3 Units=km Length=0.0522982 Rmatrix=1.12861 Xmatrix=0.33793 Cmatrix=0
New Line.0x0089ed58_0x008ea188 Phases=1 bus1=0x0089ed58.3 bus2=0x008ea188.3 Units=km Length=0.12574 Rmatrix=1.12861 Xmatrix=0.33793 Cmatrix=0
New Line.0x008cb118_0x0089c940 Phases=1 bus1=0x008cb118.3 bus2=0x0089c940.3 Units=km Length=0.0145458 Rmatrix=1.12861 Xmatrix=0.33793 Cmatrix=0
New Line.0x008eef70_0x008cfe70 Phases=1 bus1=0x008eef70.3 bus2=0x008cfe70.3 Units=km Length=0.440365 Rmatrix=1.12861 Xmatrix=0.33793 Cmatrix=0
New Line.0x008cfe70_0x008cf790 Phases=1 bus1=0x008cfe70.3 bus2=0x008cf790.3 Units=km Length=0.0390725 Rmatrix=1.12861 Xmatrix=0.33793 Cmatrix=0
...
New Transformer.M1_XFMR Phases=3 Windings=2 Buses=[Sourcebus temp] Conns=[delta wye] kVs=[67        12.47] kVAs=[16800  16800] XHL=8 %Noloadloss=0 %imag=0 sub=y MaxTap=1.05 MinTap=0.95 Wdg=1 %R=0.2 Wdg=2 %R=0.2
New Transformer.Xfmr_AE191606_A Phases=1 Buses=[0x008DDEB0.1 0x008DDEB0_s.1] kVs=[7.2        0.24] kVAs=[25  25] XHL=1.57 %Loadloss=1.3129 %Noloadloss=0 %imag=0
New Transformer.Xfmr_AE300103_A Phases=1 Buses=[0x008DCBC8.1 0x008DCBC8_s.1] kVs=[7.2        0.24] kVAs=[75  75] XHL=1.84 %Loadloss=0.836 %Noloadloss=0 %imag=0
New Transformer.Xfmr_AE300104_A Phases=1 Buses=[0x008DD0F0.1 0x008DD0F0_s.1] kVs=[7.2        0.24] kVAs=[75  75] XHL=1.73 %Loadloss=0.77776 %Noloadloss=0 %imag=0
New Transformer.Xfmr_AE300105_C Phases=1 Buses=[0x008E7F28.3 0x008E7F28_s.3] kVs=[7.2        0.24] kVAs=[75  75] XHL=1.54 %Loadloss=0.70733 %Noloadloss=0 %imag=0
New Transformer.Xfmr_AE300106_C Phases=1 Buses=[0x0089EBA0.3 0x0089EBA0_s.3] kVs=[7.2        0.24] kVAs=[75  75] XHL=1.83 %Loadloss=0.80173 %Noloadloss=0 %imag=0
New Transformer.Xfmr_AE300107_C Phases=1 Buses=[0x0089F280.3 0x0089F280_s.3] kVs=[7.2        0.24] kVAs=[75  75] XHL=1.84 %Loadloss=0.8248 %Noloadloss=0 %imag=0
New Transformer.Xfmr_AE300108_B Phases=1 Buses=[0x008C7A18.2 0x008C7A18_s.2] kVs=[7.2        0.24] kVAs=[75  75] XHL=1.87 %Loadloss=0.83907 %Noloadloss=0 %imag=0
New Transformer.Xfmr_AE300109_B Phases=1 Buses=[0x008CA358.2 0x008CA358_s.2] kVs=[7.2        0.24] kVAs=[50  50] XHL=1.84 %Loadloss=0.954 %Noloadloss=0 %imag=0
New Transformer.Xfmr_AE300110_A Phases=1 Buses=[0x008CA6C8.1 0x008CA6C8_s.1] kVs=[7.2        0.24] kVAs=[75  75] XHL=1.84 %Loadloss=0.806 %Noloadloss=0 %imag=0
New Transformer.Xfmr_AE300111_A Phases=1 Buses=[0x008C9070.1 0x008C9070_s.1] kVs=[7.2        0.24] kVAs=[75  75] XHL=1.54 %Loadloss=0.7 %Noloadloss=0 %imag=0
New Transformer.Xfmr_AE300114_C Phases=1 Buses=[0x008DEE30.3 0x008DEE30_s.3] kVs=[7.2        0.24] kVAs=[25  25] XHL=2.04 %Loadloss=1.304 %Noloadloss=0 %imag=0
New Transformer.Xfmr_AE300115_C Phases=1 Buses=[0x008E8450.3 0x008E8450_s.3] kVs=[7.2        0.24] kVAs=[50  50] XHL=1.5 %Loadloss=0.89068 %Noloadloss=0 %imag=0
New Transformer.Xfmr_AE300116_C Phases=1 Buses=[0x008C4D68.3 0x008C4D68_s.3] kVs=[7.2        0.24] kVAs=[25  25] XHL=2.03 %Loadloss=1.256 %Noloadloss=0 %imag=0
New Transformer.Xfmr_AE300117_C Phases=1 Buses=[0x008DF6C8.3 0x008DF6C8_s.3] kVs=[7.2        0.24] kVAs=[75  75] XHL=1.8 %Loadloss=0.61333 %Noloadloss=0 %imag=0
New Transformer.Xfmr_AE300118_C Phases=1 Buses=[0x008E8978.3 0x008E8978_s.3] kVs=[7.2        0.24] kVAs=[75  75] XHL=1.82 %Loadloss=0.82 %Noloadloss=0 %imag=0
New Transformer.Xfmr_AE300119_C Phases=1 Buses=[0x008E87C0.3 0x008E87C0_s.3] kVs=[7.2        0.24] kVAs=[75  75] XHL=1.82 %Loadloss=0.84533 %Noloadloss=0 %imag=0
New Transformer.Xfmr_AE300120_C Phases=1 Buses=[0x008DA5F0.3 0x008DA5F0_s.3] kVs=[7.2        0.24] kVAs=[75  75] XHL=1.6 %Loadloss=0.77776 %Noloadloss=0 %imag=0
New Transformer.Xfmr_AE300121_C Phases=1 Buses=[0x008EA188.3 0x008EA188_s.3] kVs=[7.2        0.24] kVAs=[50  50] XHL=1.6 %Loadloss=0.89068 %Noloadloss=0 %imag=0
New Transformer.Xfmr_AE300122_A Phases=1 Buses=[0x008E9E18.1 0x008E9E18_s.1] kVs=[7.2        0.24] kVAs=[75  75] XHL=1.85 %Loadloss=0.8084 %Noloadloss=0 %imag=0
New Transformer.Xfmr_AE300123_A Phases=1 Buses=[0x008DBC48.1 0x008DBC48_s.1] kVs=[7.2        0.24] kVAs=[50  50] XHL=1.9 %Loadloss=0.962 %Noloadloss=0 %imag=0
New Transformer.Xfmr_AE300124_B Phases=1 Buses=[0x008DFBF0.2 0x008DFBF0_s.2] kVs=[7.2        0.24] kVAs=[75  75] XHL=1.7 %Loadloss=0.77776 %Noloadloss=0 %imag=0
New Transformer.Xfmr_AE300125_B Phases=1 Buses=[0x008D0398.2 0x008D0398_s.2] kVs=[7.2        0.24] kVAs=[50  50] XHL=1.88 %Loadloss=0.94 %Noloadloss=0 %imag=0
New Transformer.Xfmr_AE300134_A Phases=1 Buses=[0x008C5290.1 0x008C5290_s.1] kVs=[7.2        0.24] kVAs=[50  50] XHL=1.96 %Loadloss=0.964 %Noloadloss=0 %imag=0
New Transformer.Xfmr_AE300135_A Phases=1 Buses=[0x008C4BB0.1 0x008C4BB0_s.1] kVs=[7.2        0.24] kVAs=[75  75] XHL=1.6 %Loadloss=0.70587 %Noloadloss=0 %imag=0
New Transformer.Xfmr_AE300136_A Phases=1 Buses=[0x008DBFB8.1 0x008DBFB8_s.1] kVs=[7.2        0.24] kVAs=[50  50] XHL=1.83 %Loadloss=0.944 %Noloadloss=0 %imag=0
New Transformer.Xfmr_AE300142_B Phases=1 Buses=[0x0089DDE0.2 0x0089DDE0_s.2] kVs=[7.2        0.24] kVAs=[75  75] XHL=3.6 %Loadloss=0.77776 %Noloadloss=0 %imag=0
New Transformer.Xfmr_AE300143_B Phases=1 Buses=[0x0089D700.2 0x0089D700_s.2] kVs=[7.2        0.24] kVAs=[25  25] XHL=1.6 %Loadloss=1.1875 %Noloadloss=0 %imag=0
New Transformer.Xfmr_AE300144_B Phases=1 Buses=[0x0089E4C0.2 0x0089E4C0_s.2] kVs=[7.2        0.24] kVAs=[25  25] XHL=1.6 %Loadloss=0.936 %Noloadloss=0 %imag=0
New Transformer.Xfmr_AE300145_B Phases=1 Buses=[0x008C5970.2 0x008C5970_s.2] kVs=[7.2        0.24] kVAs=[75  75] XHL=1.9 %Loadloss=0.82693 %Noloadloss=0 %imag=0
New Transformer.Xfmr_AE300146_B Phases=1 Buses=[0x0089D020.2 0x0089D020_s.2] kVs=[7.2        0.24] kVAs=[50  50] XHL=1.85 %Loadloss=0.9338 %Noloadloss=0 %imag=0
New Transformer.Xfmr_AE300147_B Phases=1 Buses=[0x008C2B70.2 0x008C2B70_s.2] kVs=[7.2        0.24] kVAs=[75  75] XHL=1.89 %Loadloss=0.8372 %Noloadloss=0 %imag=0
New Transformer.Xfmr_AE300148_B Phases=1 Buses=[0x008C2490.2 0x008C2490_s.2] kVs=[7.2        0.24] kVAs=[75  75] XHL=1.91 %Loadloss=0.75013 %Noloadloss=0 %imag=0
New Transformer.Xfmr_AE300149_B Phases=1 Buses=[0x0089BF70.2 0x0089BF70_s.2] kVs=[7.2        0.24] kVAs=[75  75] XHL=1.82 %Loadloss=0.82667 %Noloadloss=0 %imag=0
New Transformer.Xfmr_AE300150_B Phases=1 Buses=[0x008C2648.2 0x008C2648_s.2] kVs=[7.2        0.24] kVAs=[50  50] XHL=1.87 %Loadloss=0.95 %Noloadloss=0 %imag=0
New Transformer.Xfmr_AE300151_B Phases=1 Buses=[0x008F3960.2 0x008F3960_s.2] kVs=[7.2        0.24] kVAs=[50  50] XHL=1.6 %Loadloss=0.89068 %Noloadloss=0 %imag=0
New Transformer.Xfmr_AE300152_B Phases=1 Buses=[0x008C7338.2 0x008C7338_s.2] kVs=[7.2        0.24] kVAs=[25  25] XHL=1.5 %Loadloss=0.928 %Noloadloss=0 %imag=0
New Transformer.Xfmr_AE300153_C Phases=1 Buses=[0x0089C260.3 0x0089C260_s.3] kVs=[7.2        0.24] kVAs=[75  75] XHL=1.49 %Loadloss=0.64533 %Noloadloss=0 %imag=0
New Transformer.Xfmr_AE300154_C Phases=1 Buses=[0x008E49E0.3 0x008E49E0_s.3] kVs=[7.2        0.24] kVAs=[75  75] XHL=1.7 %Loadloss=0.77776 %Noloadloss=0 %imag=0
New Transformer.Xfmr_AE300155_C Phases=1 Buses=[0x0089C940.3 0x0089C940_s.3] kVs=[7.2        0.24] kVAs=[50  50] XHL=1.87 %Loadloss=0.952 %Noloadloss=0 %imag=0
New Transformer.Xfmr_AE300199_A Phases=1 Buses=[0x008B8108.1 0x008B8108_s.1] kVs=[7.2        0.24] kVAs=[50  50] XHL=2.9 %Loadloss=1.1875 %Noloadloss=0 %imag=0
New Transformer.Xfmr_AE300199_C Phases=1 Buses=[0x008B8108.3 0x008B8108_s.3] kVs=[7.2        0.24] kVAs=[50  50] XHL=2.9 %Loadloss=1.1875 %Noloadloss=0 %imag=0
New Transformer.Xfmr_AE300202_A Phases=1 Buses=[0x008E44B8.1 0x008E44B8_s.1] kVs=[7.2        0.24] kVAs=[50  50] XHL=1.92 %Loadloss=0.9506 %Noloadloss=0 %imag=0
New Transformer.Xfmr_AE300203_A Phases=1 Buses=[0x008DB8D8.1 0x008DB8D8_s.1] kVs=[7.2        0.24] kVAs=[75  75] XHL=1.84 %Loadloss=0.832 %Noloadloss=0 %imag=0
New Transformer.Xfmr_AE300204_A Phases=1 Buses=[0x008D9678.1 0x008D9678_s.1] kVs=[7.2        0.24] kVAs=[50  50] XHL=1.88 %Loadloss=0.9432 %Noloadloss=0 %imag=0
New Transformer.Xfmr_AE300206_A Phases=1 Buses=[0x008DD7D0.1 0x008DD7D0_s.1] kVs=[7.2        0.24] kVAs=[50  50] XHL=1.5 %Loadloss=0.89068 %Noloadloss=0 %imag=0
New Transformer.Xfmr_AE300207_A Phases=1 Buses=[0x008D2618.1 0x008D2618_s.1] kVs=[7.2        0.24] kVAs=[75  75] XHL=1.73 %Loadloss=0.74133 %Noloadloss=0 %imag=0
New Transformer.Xfmr_AE300208_A Phases=1 Buses=[0x008E74D8.1 0x008E74D8_s.1] kVs=[7.2        0.24] kVAs=[75  75] XHL=1.66 %Loadloss=0.74267 %Noloadloss=0 %imag=0
New Transformer.Xfmr_AE300209_A Phases=1 Buses=[0x008E5278.1 0x008E5278_s.1] kVs=[7.2        0.24] kVAs=[50  50] XHL=1.5 %Loadloss=0.89068 %Noloadloss=0 %imag=0
New Transformer.Xfmr_AE300216_B Phases=1 Buses=[0x008EDA38.2 0x008EDA38_s.2] kVs=[7.2        0.24] kVAs=[75  75] XHL=1.8 %Loadloss=0.80573 %Noloadloss=0 %imag=0
New Transformer.Xfmr_AE300217_B Phases=1 Buses=[0x008D7DC8.2 0x008D7DC8_s.2] kVs=[7.2        0.24] kVAs=[75  75] XHL=1.84 %Loadloss=0.8316 %Noloadloss=0 %imag=0
New Transformer.Xfmr_AE300225_C Phases=1 Buses=[0x008DF1A0.3 0x008DF1A0_s.3] kVs=[7.2        0.24] kVAs=[50  50] XHL=1.83 %Loadloss=0.946 %Noloadloss=0 %imag=0
New Transformer.Xfmr_AE300226_A Phases=1 Buses=[0x008E8CE8.1 0x008E8CE8_s.1] kVs=[7.2        0.24] kVAs=[75  75] XHL=1.8 %Loadloss=0.77776 %Noloadloss=0 %imag=0
New Transformer.Xfmr_AE300227_A Phases=1 Buses=[0x008E6560.1 0x008E6560_s.1] kVs=[7.2        0.24] kVAs=[50  50] XHL=1.97 %Loadloss=0.9874 %Noloadloss=0 %imag=0
New Transformer.Xfmr_AE300229_A Phases=1 Buses=[0x008E7168.1 0x008E7168_s.1] kVs=[7.2        0.24] kVAs=[75  75] XHL=1.98 %Loadloss=0.77776 %Noloadloss=0 %imag=0
New Transformer.Xfmr_AE300234_A Phases=1 Buses=[0x008E93C8.1 0x008E93C8_s.1] kVs=[7.2        0.24] kVAs=[75  75] XHL=1.57 %Loadloss=0.82533 %Noloadloss=0 %imag=0
New Transformer.Xfmr_AE300235_B Phases=1 Buses=[0x008E7320.2 0x008E7320_s.2] kVs=[7.2        0.24] kVAs=[50  50] XHL=1.88 %Loadloss=0.9614 %Noloadloss=0 %imag=0
New Transformer.Xfmr_AE300236_B Phases=1 Buses=[0x008E7848.2 0x008E7848_s.2] kVs=[7.2        0.24] kVAs=[50  50] XHL=1.77 %Loadloss=1.1247 %Noloadloss=0 %imag=0
New Transformer.Xfmr_AE300237_B Phases=1 Buses=[0x008E4300.2 0x008E4300_s.2] kVs=[7.2        0.24] kVAs=[75  75] XHL=1.93 %Loadloss=0.77776 %Noloadloss=0 %imag=0
New Transformer.Xfmr_AE300238_B Phases=1 Buses=[0x008E2750.2 0x008E2750_s.2] kVs=[7.2        0.24] kVAs=[50  50] XHL=1.87 %Loadloss=0.9544 %Noloadloss=0 %imag=0
New Transformer.Xfmr_AE300239_B Phases=1 Buses=[0x008E2AC0.2 0x008E2AC0_s.2] kVs=[7.2        0.24] kVAs=[50  50] XHL=1.71 %Loadloss=0.89068 %Noloadloss=0 %imag=0
New Transformer.Xfmr_AE300240_C Phases=1 Buses=[0x008EB998.3 0x008EB998_s.3] kVs=[7.2        0.24] kVAs=[50  50] XHL=1.86 %Loadloss=0.939 %Noloadloss=0 %imag=0
New Transformer.Xfmr_AE300241_C Phases=1 Buses=[0x008EB2B8.3 0x008EB2B8_s.3] kVs=[7.2        0.24] kVAs=[50  50] XHL=1.6 %Loadloss=0.89068 %Noloadloss=0 %imag=0
New Transformer.Xfmr_AE300242_C Phases=1 Buses=[0x008ED358.3 0x008ED358_s.3] kVs=[7.2        0.24] kVAs=[50  50] XHL=1.54 %Loadloss=0.7088 %Noloadloss=0 %imag=0
New Transformer.Xfmr_AE300243_C Phases=1 Buses=[0x008E2FE8.3 0x008E2FE8_s.3] kVs=[7.2        0.24] kVAs=[75  75] XHL=1.6 %Loadloss=0.77776 %Noloadloss=0 %imag=0
New Transformer.Xfmr_AE300244_C Phases=1 Buses=[0x008E3510.3 0x008E3510_s.3] kVs=[7.2        0.24] kVAs=[50  50] XHL=1.55 %Loadloss=0.7142 %Noloadloss=0 %imag=0
New Transformer.Xfmr_AE300245_C Phases=1 Buses=[0x008E68D0.3 0x008E68D0_s.3] kVs=[7.2        0.24] kVAs=[50  50] XHL=1.57 %Loadloss=0.7608 %Noloadloss=0 %imag=0
New Transformer.Xfmr_AE300253_B Phases=1 Buses=[0x008E9C60.2 0x008E9C60_s.2] kVs=[7.2        0.24] kVAs=[50  50] XHL=1.6 %Loadloss=0.89068 %Noloadloss=0 %imag=0
New Transformer.Xfmr_AE300253_C Phases=1 Buses=[0x008E9C60.3 0x008E9C60_s.3] kVs=[7.2        0.24] kVAs=[50  50] XHL=1.6 %Loadloss=0.89068 %Noloadloss=0 %imag=0
New Transformer.Xfmr_AE300255_B Phases=1 Buses=[0x008DF510.2 0x008DF510_s.2] kVs=[7.2        0.24] kVAs=[38  38] XHL=1.9 %Loadloss=0.89068 %Noloadloss=0 %imag=0
New Transformer.Xfmr_AE300255_C Phases=1 Buses=[0x008DF510.3 0x008DF510_s.3] kVs=[7.2        0.24] kVAs=[38  38] XHL=1.9 %Loadloss=0.89068 %Noloadloss=0 %imag=0
New Transformer.Xfmr_AE300257_A Phases=1 Buses=[0x008E7D70.1 0x008E7D70_s.1] kVs=[7.2        0.12] kVAs=[25  25] XHL=2.1 %Loadloss=1.1875 %Noloadloss=0 %imag=0
New Transformer.Xfmr_AE300257_B Phases=1 Buses=[0x008E7D70.2 0x008E7D70_s.2] kVs=[7.2        0.12] kVAs=[25  25] XHL=2.1 %Loadloss=1.1875 %Noloadloss=0 %imag=0
New Transformer.Xfmr_AE300257_C Phases=1 Buses=[0x008E7D70.3 0x008E7D70_s.3] kVs=[7.2        0.12] kVAs=[25  25] XHL=2.1 %Loadloss=1.1875 %Noloadloss=0 %imag=0
New Transformer.Xfmr_AE300701_A Phases=1 Buses=[0x008CE818.1 0x008CE818_s.1] kVs=[7.2        0.24] kVAs=[75  75] XHL=1.77 %Loadloss=0.748 %Noloadloss=0 %imag=0
New Transformer.Xfmr_AE300702_B Phases=1 Buses=[0x008D3AC0.2 0x008D3AC0_s.2] kVs=[7.2        0.24] kVAs=[75  75] XHL=1.59 %Loadloss=0.70853 %Noloadloss=0 %imag=0
New Transformer.Xfmr_AE300703_B Phases=1 Buses=[0x008CD8A0.2 0x008CD8A0_s.2] kVs=[7.2        0.24] kVAs=[75  75] XHL=3.1 %Loadloss=0.77776 %Noloadloss=0 %imag=0
New Transformer.Xfmr_AE300704_B Phases=1 Buses=[0x008DE598.2 0x008DE598_s.2] kVs=[7.2        0.24] kVAs=[75  75] XHL=1.87 %Loadloss=0.82787 %Noloadloss=0 %imag=0
New Transformer.Xfmr_AE300705_B Phases=1 Buses=[0x008D3598.2 0x008D3598_s.2] kVs=[7.2        0.24] kVAs=[75  75] XHL=1.65 %Loadloss=0.77067 %Noloadloss=0 %imag=0
New Transformer.Xfmr_AE300706_B Phases=1 Buses=[0x008D33E0.2 0x008D33E0_s.2] kVs=[7.2        0.24] kVAs=[75  75] XHL=1.83 %Loadloss=0.83467 %Noloadloss=0 %imag=0
New Transformer.Xfmr_AE300707_B Phases=1 Buses=[0x008D4510.2 0x008D4510_s.2] kVs=[7.2        0.24] kVAs=[50  50] XHL=1.9 %Loadloss=0.962 %Noloadloss=0 %imag=0
New Transformer.Xfmr_AE300710_C Phases=1 Buses=[0x008D4880.3 0x008D4880_s.3] kVs=[7.2        0.24] kVAs=[75  75] XHL=1.6 %Loadloss=0.71187 %Noloadloss=0 %imag=0
New Transformer.Xfmr_AE300711_C Phases=1 Buses=[0x008D4F60.3 0x008D4F60_s.3] kVs=[7.2        0.24] kVAs=[75  75] XHL=2.2 %Loadloss=0.77776 %Noloadloss=0 %imag=0
New Transformer.Xfmr_AE300712_C Phases=1 Buses=[0x008D5D20.3 0x008D5D20_s.3] kVs=[7.2        0.24] kVAs=[75  75] XHL=1.6 %Loadloss=0.58533 %Noloadloss=0 %imag=0
New Transformer.Xfmr_AE300713_C Phases=1 Buses=[0x008D6400.3 0x008D6400_s.3] kVs=[7.2        0.24] kVAs=[75  75] XHL=1.7 %Loadloss=0.58133 %Noloadloss=0 %imag=0
New Transformer.Xfmr_AE300714_C Phases=1 Buses=[0x008D5488.3 0x008D5488_s.3] kVs=[7.2        0.24] kVAs=[50  50] XHL=1.67 %Loadloss=0.606 %Noloadloss=0 %imag=0
New Transformer.Xfmr_AE300715_C Phases=1 Buses=[0x008D4BF0.3 0x008D4BF0_s.3] kVs=[7.2        0.24] kVAs=[75  75] XHL=1.54 %Loadloss=0.52533 %Noloadloss=0 %imag=0
New Transformer.Xfmr_AE300808_B Phases=1 Buses=[0x008D0DE8.2 0x008D0DE8_s.2] kVs=[7.2        0.24] kVAs=[50  50] XHL=1.3 %Loadloss=0.89068 %Noloadloss=0 %imag=0
New Transformer.Xfmr_AE300809_B Phases=1 Buses=[0x008CCE50.2 0x008CCE50_s.2] kVs=[7.2        0.24] kVAs=[50  50] XHL=1.86 %Loadloss=0.9472 %Noloadloss=0 %imag=0
New Transformer.Xfmr_AE300810_B Phases=1 Buses=[0x008D3E30.2 0x008D3E30_s.2] kVs=[7.2        0.24] kVAs=[75  75] XHL=1.84 %Loadloss=0.82133 %Noloadloss=0 %imag=0
New Transformer.Xfmr_AE300811_B Phases=1 Buses=[0x008D14E8.2 0x008D14E8_s.2] kVs=[7.2        0.24] kVAs=[75  75] XHL=1.6 %Loadloss=0.77776 %Noloadloss=0 %imag=0
New Transformer.Xfmr_AE300812_B Phases=1 Buses=[0x008D1F38.2 0x008D1F38_s.2] kVs=[7.2        0.24] kVAs=[75  75] XHL=1.3 %Loadloss=0.77776 %Noloadloss=0 %imag=0
New Transformer.Xfmr_AE300813_B Phases=1 Buses=[0x008DD618.2 0x008DD618_s.2] kVs=[7.2        0.24] kVAs=[75  75] XHL=1.8 %Loadloss=0.77776 %Noloadloss=0 %imag=0
New Transformer.Xfmr_AE300814_A Phases=1 Buses=[0x008DFF60.1 0x008DFF60_s.1] kVs=[7.2        0.24] kVAs=[50  50] XHL=1.3 %Loadloss=0.89068 %Noloadloss=0 %imag=0
New Transformer.Xfmr_AE300815_B Phases=1 Buses=[0x008EE520.2 0x008EE520_s.2] kVs=[7.2        0.24] kVAs=[38  38] XHL=1.5 %Loadloss=0.89068 %Noloadloss=0 %imag=0
New Transformer.Xfmr_AE300817_B Phases=1 Buses=[0x008CB488.2 0x008CB488_s.2] kVs=[7.2        0.24] kVAs=[75  75] XHL=1.82 %Loadloss=0.81867 %Noloadloss=0 %imag=0
New Transformer.Xfmr_AE300818_B Phases=1 Buses=[0x008C8990.2 0x008C8990_s.2] kVs=[7.2        0.24] kVAs=[75  75] XHL=1.88 %Loadloss=0.83613 %Noloadloss=0 %imag=0
New Transformer.Xfmr_AE300819_A Phases=1 Buses=[0x008CADA8.1 0x008CADA8_s.1] kVs=[7.2        0.24] kVAs=[75  75] XHL=1.86 %Loadloss=0.8268 %Noloadloss=0 %imag=0
New Transformer.Xfmr_AE300820_A Phases=1 Buses=[0x008DC858.1 0x008DC858_s.1] kVs=[7.2        0.24] kVAs=[75  75] XHL=3.21 %Loadloss=0.942 %Noloadloss=0 %imag=0
New Transformer.Xfmr_AE300821_A Phases=1 Buses=[0x008D0708.1 0x008D0708_s.1] kVs=[7.2        0.24] kVAs=[75  75] XHL=2.26 %Loadloss=0.89813 %Noloadloss=0 %imag=0
New Transformer.Xfmr_AE300822_A Phases=1 Buses=[0x008E8B30.1 0x008E8B30_s.1] kVs=[7.2        0.24] kVAs=[75  75] XHL=1.57 %Loadloss=0.70733 %Noloadloss=0 %imag=0
New Transformer.Xfmr_AE300823_C Phases=1 Buses=[0x008C7860.3 0x008C7860_s.3] kVs=[7.2        0.24] kVAs=[75  75] XHL=1.49 %Loadloss=0.61067 %Noloadloss=0 %imag=0
New Transformer.Xfmr_AE300825_B Phases=1 Buses=[0x008CC090.2 0x008CC090_s.2] kVs=[7.2        0.24] kVAs=[50  50] XHL=1.87 %Loadloss=0.9586 %Noloadloss=0 %imag=0
New Transformer.Xfmr_AE300826_B Phases=1 Buses=[0x008CD530.2 0x008CD530_s.2] kVs=[7.2        0.24] kVAs=[75  75] XHL=1.85 %Loadloss=0.812 %Noloadloss=0 %imag=0
New Transformer.Xfmr_AE300827_B Phases=1 Buses=[0x008CDC10.2 0x008CDC10_s.2] kVs=[7.2        0.24] kVAs=[75  75] XHL=1.84 %Loadloss=0.816 %Noloadloss=0 %imag=0
New Transformer.Xfmr_AE300828_B Phases=1 Buses=[0x008CE138.2 0x008CE138_s.2] kVs=[7.2        0.24] kVAs=[50  50] XHL=1.8 %Loadloss=0.89068 %Noloadloss=0 %imag=0
New Transformer.Xfmr_AE300829_B Phases=1 Buses=[0x008DA7A8.2 0x008DA7A8_s.2] kVs=[7.2        0.24] kVAs=[50  50] XHL=1.83 %Loadloss=0.9566 %Noloadloss=0 %imag=0
New Transformer.Xfmr_AE300830_B Phases=1 Buses=[0x008D01E0.2 0x008D01E0_s.2] kVs=[7.2        0.24] kVAs=[50  50] XHL=1.85 %Loadloss=0.9404 %Noloadloss=0 %imag=0
New Transformer.Xfmr_AE300831_C Phases=1 Buses=[0x008CB9B0.3 0x008CB9B0_s.3] kVs=[7.2        0.24] kVAs=[50  50] XHL=1.68 %Loadloss=0.654 %Noloadloss=0 %imag=0
New Transformer.Xfmr_AE300832_C Phases=1 Buses=[0x008CC770.3 0x008CC770_s.3] kVs=[7.2        0.24] kVAs=[75  75] XHL=1.82 %Loadloss=0.82267 %Noloadloss=0 %imag=0
New Transformer.Xfmr_AE300833_C Phases=1 Buses=[0x008CF0B0.3 0x008CF0B0_s.3] kVs=[7.2        0.24] kVAs=[75  75] XHL=1.8 %Loadloss=0.77776 %Noloadloss=0 %imag=0
New Transformer.Xfmr_AE300834_C Phases=1 Buses=[0x008C50D8.3 0x008C50D8_s.3] kVs=[7.2        0.24] kVAs=[50  50] XHL=1.92 %Loadloss=0.966 %Noloadloss=0 %imag=0
New Transformer.Xfmr_AE300835_C Phases=1 Buses=[0x008CF790.3 0x008CF790_s.3] kVs=[7.2        0.24] kVAs=[50  50] XHL=1.62 %Loadloss=0.6696 %Noloadloss=0 %imag=0
New Transformer.Xfmr_AE300836_C Phases=1 Buses=[0x008CFE70.3 0x008CFE70_s.3] kVs=[7.2        0.24] kVAs=[50  50] XHL=1.8 %Loadloss=0.89068 %Noloadloss=0 %imag=0
New Transformer.Xfmr_AE300901_A Phases=1 Buses=[0x008C6FC8.1 0x008C6FC8_s.1] kVs=[7.2        0.24] kVAs=[75  75] XHL=1.6 %Loadloss=0.77776 %Noloadloss=0 %imag=0
New Transformer.Xfmr_AE300902_A Phases=1 Buses=[0x008C8EB8.1 0x008C8EB8_s.1] kVs=[7.2        0.24] kVAs=[75  75] XHL=1.85 %Loadloss=0.81867 %Noloadloss=0 %imag=0
New Transformer.Xfmr_AE300903_B Phases=1 Buses=[0x008F2830.2 0x008F2830_s.2] kVs=[7.2        0.24] kVAs=[100  100] XHL=1.82 %Loadloss=0.679 %Noloadloss=0 %imag=0
New Transformer.Xfmr_AE300904_B Phases=1 Buses=[0x008D1330.2 0x008D1330_s.2] kVs=[7.2        0.24] kVAs=[75  75] XHL=1.7 %Loadloss=0.77776 %Noloadloss=0 %imag=0
New Transformer.Xfmr_AE300905_B Phases=1 Buses=[0x008D8660.2 0x008D8660_s.2] kVs=[7.2        0.24] kVAs=[75  75] XHL=1.69 %Loadloss=0.74533 %Noloadloss=0 %imag=0
New Transformer.Xfmr_AE300906_B Phases=1 Buses=[0x008D4358.2 0x008D4358_s.2] kVs=[7.2        0.24] kVAs=[75  75] XHL=1.57 %Loadloss=0.648 %Noloadloss=0 %imag=0
New Transformer.Xfmr_AE300907_B Phases=1 Buses=[0x008D1BC8.2 0x008D1BC8_s.2] kVs=[7.2        0.24] kVAs=[75  75] XHL=1.72 %Loadloss=0.76133 %Noloadloss=0 %imag=0
New Transformer.Xfmr_AE300908_B Phases=1 Buses=[0x008D6AE0.2 0x008D6AE0_s.2] kVs=[7.2        0.24] kVAs=[75  75] XHL=1.65 %Loadloss=0.752 %Noloadloss=0 %imag=0
New Transformer.Xfmr_AE300911_C Phases=1 Buses=[0x008D41A0.3 0x008D41A0_s.3] kVs=[7.2        0.24] kVAs=[75  75] XHL=1.68 %Loadloss=0.76133 %Noloadloss=0 %imag=0
New Transformer.Xfmr_AE300912_C Phases=1 Buses=[0x008EAA20.3 0x008EAA20_s.3] kVs=[7.2        0.24] kVAs=[75  75] XHL=1.87 %Loadloss=0.85173 %Noloadloss=0 %imag=0
New Transformer.Xfmr_AE300913_C Phases=1 Buses=[0x008D3228.3 0x008D3228_s.3] kVs=[7.2        0.24] kVAs=[50  50] XHL=1.86 %Loadloss=0.9628 %Noloadloss=0 %imag=0
New Transformer.Xfmr_AE300914_A Phases=1 Buses=[0x008CE2F0.1 0x008CE2F0_s.1] kVs=[7.2        0.24] kVAs=[75  75] XHL=1.64 %Loadloss=0.77067 %Noloadloss=0 %imag=0
New Transformer.Xfmr_AE300915_A Phases=1 Buses=[0x008C8B48.1 0x008C8B48_s.1] kVs=[7.2        0.24] kVAs=[75  75] XHL=1.85 %Loadloss=0.80933 %Noloadloss=0 %imag=0
New Transformer.Xfmr_AE300916_A Phases=1 Buses=[0x008CF5D8.1 0x008CF5D8_s.1] kVs=[7.2        0.24] kVAs=[75  75] XHL=1.66 %Loadloss=0.75333 %Noloadloss=0 %imag=0
New Transformer.Xfmr_AE300917_A Phases=1 Buses=[0x008DC4E8.1 0x008DC4E8_s.1] kVs=[7.2        0.24] kVAs=[75  75] XHL=1.67 %Loadloss=0.752 %Noloadloss=0 %imag=0
New Transformer.Xfmr_AE300918_A Phases=1 Buses=[0x008D2460.1 0x008D2460_s.1] kVs=[7.2        0.24] kVAs=[75  75] XHL=3.2 %Loadloss=0.95347 %Noloadloss=0 %imag=0
New Transformer.Xfmr_AE300919_A Phases=1 Buses=[0x008D5ED8.1 0x008D5ED8_s.1] kVs=[7.2        0.24] kVAs=[50  50] XHL=1.77 %Loadloss=1.1294 %Noloadloss=0 %imag=0
New Transformer.Xfmr_AE300920_A Phases=1 Buses=[0x008CD6E8.1 0x008CD6E8_s.1] kVs=[7.2        0.24] kVAs=[75  75] XHL=3.21 %Loadloss=0.93747 %Noloadloss=0 %imag=0
New Transformer.Xfmr_AE300921_B Phases=1 Buses=[0x008B8D10.2 0x008B8D10_s.2] kVs=[7.2        0.24] kVAs=[50  50] XHL=1.78 %Loadloss=1.108 %Noloadloss=0 %imag=0
New Transformer.Xfmr_AE300922_B Phases=1 Buses=[0x008EB470.2 0x008EB470_s.2] kVs=[7.2        0.24] kVAs=[50  50] XHL=1.78 %Loadloss=0.9256 %Noloadloss=0 %imag=0
New Transformer.Xfmr_AE300923_B Phases=1 Buses=[0x008D5118.2 0x008D5118_s.2] kVs=[7.2        0.24] kVAs=[50  50] XHL=1.69 %Loadloss=0.9829 %Noloadloss=0 %imag=0
New Transformer.Xfmr_AE301003_C Phases=1 Buses=[0x008D82F0.3 0x008D82F0_s.3] kVs=[7.2        0.24] kVAs=[75  75] XHL=1.7 %Loadloss=0.77776 %Noloadloss=0 %imag=0
New Transformer.Xfmr_AE301004_C Phases=1 Buses=[0x00899528.3 0x00899528_s.3] kVs=[7.2        0.24] kVAs=[75  75] XHL=1.9 %Loadloss=0.83533 %Noloadloss=0 %imag=0
New Transformer.Xfmr_AE301005_C Phases=1 Buses=[0x008D6C98.3 0x008D6C98_s.3] kVs=[7.2        0.24] kVAs=[50  50] XHL=1.61 %Loadloss=0.678 %Noloadloss=0 %imag=0
New Transformer.Xfmr_AE301006_C Phases=1 Buses=[0x008D7008.3 0x008D7008_s.3] kVs=[7.2        0.24] kVAs=[50  50] XHL=1.6 %Loadloss=0.89068 %Noloadloss=0 %imag=0
New Transformer.Xfmr_AE301007_C Phases=1 Buses=[0x008C93E0.3 0x008C93E0_s.3] kVs=[7.2        0.24] kVAs=[50  50] XHL=1.62 %Loadloss=0.72 %Noloadloss=0 %imag=0
New Transformer.Xfmr_AE301008_C Phases=1 Buses=[0x008D8D40.3 0x008D8D40_s.3] kVs=[7.2        0.24] kVAs=[75  75] XHL=1.84 %Loadloss=0.8476 %Noloadloss=0 %imag=0
New Transformer.Xfmr_AE301009_C Phases=1 Buses=[0x008D78A0.3 0x008D78A0_s.3] kVs=[7.2        0.24] kVAs=[75  75] XHL=1.7 %Loadloss=0.77776 %Noloadloss=0 %imag=0
New Transformer.Xfmr_AE301010_C Phases=1 Buses=[0x008D7C10.3 0x008D7C10_s.3] kVs=[7.2        0.24] kVAs=[75  75] XHL=1.61 %Loadloss=0.7332 %Noloadloss=0 %imag=0
New Transformer.Xfmr_AE301011_C Phases=1 Buses=[0x008EB7E0.3 0x008EB7E0_s.3] kVs=[7.2        0.24] kVAs=[50  50] XHL=1.61 %Loadloss=0.7192 %Noloadloss=0 %imag=0
New Transformer.Xfmr_AE301016_A Phases=1 Buses=[0x008D8138.1 0x008D8138_s.1] kVs=[7.2        0.24] kVAs=[50  50] XHL=1.9 %Loadloss=0.9604 %Noloadloss=0 %imag=0
New Transformer.Xfmr_AE301017_A Phases=1 Buses=[0x008D89D0.1 0x008D89D0_s.1] kVs=[7.2        0.24] kVAs=[75  75] XHL=1.85 %Loadloss=0.82293 %Noloadloss=0 %imag=0
New Transformer.Xfmr_AE301018_A Phases=1 Buses=[0x008DEC78.1 0x008DEC78_s.1] kVs=[7.2        0.24] kVAs=[75  75] XHL=1.9 %Loadloss=0.81173 %Noloadloss=0 %imag=0
New Transformer.Xfmr_AE301019_A Phases=1 Buses=[0x008996E0.1 0x008996E0_s.1] kVs=[7.2        0.24] kVAs=[50  50] XHL=1.66 %Loadloss=0.928 %Noloadloss=0 %imag=0
New Transformer.Xfmr_AE301020_A Phases=1 Buses=[0x008D9830.1 0x008D9830_s.1] kVs=[7.2        0.24] kVAs=[50  50] XHL=1.67 %Loadloss=0.89068 %Noloadloss=0 %imag=0
New Transformer.Xfmr_AE301021_A Phases=1 Buses=[0x008D9BA0.1 0x008D9BA0_s.1] kVs=[7.2        0.24] kVAs=[50  50] XHL=1.66 %Loadloss=0.91 %Noloadloss=0 %imag=0
New Transformer.Xfmr_AE301022_C Phases=1 Buses=[0x008D08C0.3 0x008D08C0_s.3] kVs=[7.2        0.24] kVAs=[50  50] XHL=1.53 %Loadloss=0.72 %Noloadloss=0 %imag=0
New Transformer.Xfmr_AE301517_C Phases=1 Buses=[0x008DA438.3 0x008DA438_s.3] kVs=[7.2        0.24] kVAs=[50  50] XHL=1.77 %Loadloss=1.1484 %Noloadloss=0 %imag=0
New Transformer.Xfmr_AE301518_C Phases=1 Buses=[0x008DA960.3 0x008DA960_s.3] kVs=[7.2        0.24] kVAs=[50  50] XHL=1.64 %Loadloss=0.6738 %Noloadloss=0 %imag=0
New Transformer.Xfmr_AE301519_C Phases=1 Buses=[0x008DACD0.3 0x008DACD0_s.3] kVs=[7.2        0.24] kVAs=[75  75] XHL=1.49 %Loadloss=0.65067 %Noloadloss=0 %imag=0
New Transformer.Xfmr_AE301520_A Phases=1 Buses=[0x008DB568.1 0x008DB568_s.1] kVs=[7.2        0.24] kVAs=[50  50] XHL=1.63 %Loadloss=0.674 %Noloadloss=0 %imag=0
New Transformer.Xfmr_AE301521_A Phases=1 Buses=[0x008DB040.1 0x008DB040_s.1] kVs=[7.2        0.24] kVAs=[50  50] XHL=1.86 %Loadloss=0.936 %Noloadloss=0 %imag=0
New Transformer.Xfmr_AE300247 Phases=3 Buses=[0x008E6FB0 0x008E6FB0_s] kVs=[12.47        0.208] kVAs=[225  225] XHL=4.8 %Loadloss=0.75767 %Noloadloss=0 %imag=0
New Transformer.Xfmr_AE300250 Phases=3 Buses=[0x008E7A00 0x008E7A00_s] kVs=[12.47        0.208] kVAs=[150  150] XHL=2.09 %Loadloss=0.87873 %Noloadloss=0 %imag=0
New Transformer.Xfmr_AE300322 Phases=3 Buses=[0x0089E678 0x0089E678_s] kVs=[12.47        0.208] kVAs=[300  300] XHL=4.46 %Loadloss=0.6366 %Noloadloss=0 %imag=0
New Transformer.Xfmr_AE301090 Phases=3 Buses=[0x008D3070 0x008D3070_s] kVs=[12.47         0.48] kVAs=[750  750] XHL=6.01 %Loadloss=0.6524 %Noloadloss=0 %imag=0
New Regcontrol.M1_XFMR_Regulator transformer=M1_XFMR winding=2 vreg=122 band=3 delay=15 ptratio=60 bus=temp tapdelay=45 enabled=True
New Capacitor.Cap1 Phases=3 Bus1=0x008C6578 Kvar=1200 Kv=12.47 Conn=wye states=0 enabled=true
New Capacitor.Cap2 Phases=3 Bus1=0x008ED880 Kvar=1200 Kv=12.47 Conn=wye states=0 enabled=true
New Capacitor.Cap3 Phases=3 Bus1=0x008DBE00 Kvar=1200 Kv=12.47 Conn=wye states=1 enabled=true
New Capacitor.addedShuntCap_0X00899528_S Phases=1 Bus1=0X00899528_S.3 Kvar=0 Kv=0.24018 Cmatrix=0.005325
New Capacitor.addedShuntCap_0X00899528_DROP_1_1 Phases=1 Bus1=0X00899528_DROP_1_1.3 Kvar=0 Kv=0.24018 Cmatrix=0.000375
New Capacitor.addedShuntCap_0X00899528_DROP_1_2 Phases=1 Bus1=0X00899528_DROP_1_2.3 Kvar=0 Kv=0.24018 Cmatrix=0.000375
New Capacitor.addedShuntCap_0X00899528_DROP_1_3 Phases=1 Bus1=0X00899528_DROP_1_3.3 Kvar=0 Kv=0.24018 Cmatrix=0.000375
New Capacitor.addedShuntCap_0X00899528_DROP_1_4 Phases=1 Bus1=0X00899528_DROP_1_4.3 Kvar=0 Kv=0.24018 Cmatrix=0.000375
New Capacitor.addedShuntCap_0X00899528_SND_1 Phases=1 Bus1=0X00899528_SND_1.3 Kvar=0 Kv=0.24018 Cmatrix=0.002775
New Capacitor.addedShuntCap_0X00899528_DROP_1_5 Phases=1 Bus1=0X00899528_DROP_1_5.3 Kvar=0 Kv=0.24018 Cmatrix=0.000375
New Capacitor.addedShuntCap_0X00899528_DROP_1_6 Phases=1 Bus1=0X00899528_DROP_1_6.3 Kvar=0 Kv=0.24018 Cmatrix=0.000375
New Capacitor.addedShuntCap_0X00899528_DROP_1_7 Phases=1 Bus1=0X00899528_DROP_1_7.3 Kvar=0 Kv=0.24018 Cmatrix=0.000375
New Capacitor.addedShuntCap_0X00899528_DROP_1_8 Phases=1 Bus1=0X00899528_DROP_1_8.3 Kvar=0 Kv=0.24018 Cmatrix=0.000375
New Capacitor.addedShuntCap_0X00899528_SND_2 Phases=1 Bus1=0X00899528_SND_2.3 Kvar=0 Kv=0.24018 Cmatrix=0.002775
New Capacitor.addedShuntCap_0X00899528_DROP_1_9 Phases=1 Bus1=0X00899528_DROP_1_9.3 Kvar=0 Kv=0.24018 Cmatrix=0.000375
New Capacitor.addedShuntCap_0X00899528_DROP_1_10 Phases=1 Bus1=0X00899528_DROP_1_10.3 Kvar=0 Kv=0.24018 Cmatrix=0.000375
New Capacitor.addedShuntCap_0X00899528_DROP_2_1 Phases=1 Bus1=0X00899528_DROP_2_1.3 Kvar=0 Kv=0.24018 Cmatrix=0.000375
New Capacitor.addedShuntCap_0X00899528_DROP_2_2 Phases=1 Bus1=0X00899528_DROP_2_2.3 Kvar=0 Kv=0.24018 Cmatrix=0.000375
New Capacitor.addedShuntCap_0X00899528_SND_3 Phases=1 Bus1=0X00899528_SND_3.3 Kvar=0 Kv=0.24018 Cmatrix=0.00165
New Capacitor.addedShuntCap_0X00899528_DROP_2_3 Phases=1 Bus1=0X00899528_DROP_2_3.3 Kvar=0 Kv=0.24018 Cmatrix=0.000375
New Capacitor.addedShuntCap_0X008996E0_S Phases=1 Bus1=0X008996E0_S.1 Kvar=0 Kv=0.24018 Cmatrix=0.00315
New Capacitor.addedShuntCap_0X008996E0_SND_1 Phases=1 Bus1=0X008996E0_SND_1.1 Kvar=0 Kv=0.24018 Cmatrix=0.0012
New Capacitor.addedShuntCap_0X008996E0_DROP_3_1 Phases=1 Bus1=0X008996E0_DROP_3_1.1 Kvar=0 Kv=0.24018 Cmatrix=0.000375
New Capacitor.addedShuntCap_0X008996E0_DROP_3_2 Phases=1 Bus1=0X008996E0_DROP_3_2.1 Kvar=0 Kv=0.24018 Cmatrix=0.000375
New Capacitor.addedShuntCap_0X008996E0_SND_2 Phases=1 Bus1=0X008996E0_SND_2.1 Kvar=0 Kv=0.24018 Cmatrix=0.001875
New Capacitor.addedShuntCap_0X008996E0_DROP_3_3 Phases=1 Bus1=0X008996E0_DROP_3_3.1 Kvar=0 Kv=0.24018 Cmatrix=0.000375
New Capacitor.addedShuntCap_0X008996E0_DROP_3_4 Phases=1 Bus1=0X008996E0_DROP_3_4.1 Kvar=0 Kv=0.24018 Cmatrix=0.000375
New Capacitor.addedShuntCap_0X008996E0_SND_3 Phases=1 Bus1=0X008996E0_SND_3.1 Kvar=0 Kv=0.24018 Cmatrix=0.0012
New Capacitor.addedShuntCap_0X008996E0_DROP_3_5 Phases=1 Bus1=0X008996E0_DROP_3_5.1 Kvar=0 Kv=0.24018 Cmatrix=0.000375
...